test/data/matpower/case57_ieee_spm.m
%%%%%%%%%%%%%%%%%%%%%%%%%%%%%%%%%%%%%%%%%%%%%%%%%%%%%%%%%%%%%%%%%%%%%%%%%%%
%%%%                                                                  %%%%%
%%%%    IEEE PES Power Grid Library - Optimal Power Flow - v21.07     %%%%%
%%%%          (https://github.com/power-grid-lib/pglib-opf)           %%%%%
%%%%               Benchmark Group - Typical Operations               %%%%%
%%%%                       06 - November - 2021                       %%%%%
%%%%                                                                  %%%%%
%%%%   The file has been extended for the purpose of stochastic OPF.  %%%%%
%%%%                                                                  %%%%%
%%%%%%%%%%%%%%%%%%%%%%%%%%%%%%%%%%%%%%%%%%%%%%%%%%%%%%%%%%%%%%%%%%%%%%%%%%%
%
%   Power flow data for IEEE 57 bus test case.
%   This data was converted from IEEE Common Data Format
%   (ieee57cdf.txt) on 20-Sep-2004 by cdf2matp, rev. 1.11
%
%   Converted from IEEE CDF file from:
%       http://www.ee.washington.edu/research/pstca/
%
%   Manually modified Qmax, Qmin on generator 1 to 200, -140, respectively.
%
%   Copyright (c) 1999 by Richard D. Christie, University of Washington
%   Electrical Engineering Licensed under the Creative Commons Attribution 4.0
%   International license, http://creativecommons.org/licenses/by/4.0/
%
%   CDF Header:
%   08/25/93 UW ARCHIVE           100.0  1961 W IEEE 57 Bus Test Case
%   
%	Notes for stochastic extension:
%	- a stochastic germ ω comprised of four sources of uncertainty:
%		~ Beta distribution 𝓑(2.0,2.0) for load at bus 3,15,18,29,41,51,52,53,55.
% 		~ Beta distribution 𝓑(2.0,5.0) for load at bus 9,27,35,38,42,50,56.
%		~ Normal distribution 𝓝(0.0,1.0) for load at bus 12,14,25,31,44,49,54.
%		~ Normal distribution 𝓝(0.0,1.0) for load at bus 13,57.
%	- stochastic parameters
%		~ μ = Pd,
%		~ σ = 0.10 * μ, and 
%		~ ε = 0.15 → λ = quantile(𝓝(0.0,1.0), 1.0 - 0.15) = 1.03643
%% MATPOWER Case Format : Version 2
function mpc = pglib_opf_case57_ieee
mpc.version = '2';

%%-----  Power Flow Data  -----%%
%% system MVA base
mpc.baseMVA = 100.0;
%% bus data
%    bus_i    type    Pd    Qd    Gs    Bs    area    Vm    Va    baseKV    zone    Vmax    Vmin
mpc.bus = [
	1	3	55.00000000000001	17.0	0.0	0.0	1	1.0	0.0	1.0	1	1.06	0.94				
	2	2	3.0	88.0	0.0	0.0	1	1.0	0.0	1.0	1	1.06	0.94				
	3	2	41.0	21.0	0.0	0.0	1	1.0	0.0	1.0	1	1.06	0.94				
	4	1	0.0	0.0	0.0	0.0	1	1.0	0.0	1.0	1	1.06	0.94				
	5	1	13.0	4.0	0.0	0.0	1	1.0	0.0	1.0	1	1.06	0.94				
	6	2	75.0	2.0	0.0	0.0	1	1.0	0.0	1.0	1	1.06	0.94				
	7	1	0.0	0.0	0.0	0.0	1	1.0	0.0	1.0	1	1.06	0.94				
	8	2	150.0	22.0	0.0	0.0	1	1.0	0.0	1.0	1	1.06	0.94				
	9	2	121.0	26.0	0.0	0.0	1	1.0	0.0	1.0	1	1.06	0.94				
	10	1	5.0	2.0	0.0	0.0	1	1.0	0.0	1.0	1	1.06	0.94				
	11	1	0.0	0.0	0.0	0.0	1	1.0	0.0	1.0	1	1.06	0.94				
	12	2	377.0	24.0	0.0	0.0	1	1.0	0.0	1.0	1	1.06	0.94				
	13	1	18.0	2.3	0.0	0.0	1	1.0	0.0	1.0	1	1.06	0.94				
	14	1	10.5	5.3	0.0	0.0	1	1.0	0.0	1.0	1	1.06	0.94				
	15	1	22.0	5.0	0.0	0.0	1	1.0	0.0	1.0	1	1.06	0.94				
	16	1	43.0	3.0	0.0	0.0	1	1.0	0.0	1.0	1	1.06	0.94				
	17	1	42.0	8.0	0.0	0.0	1	1.0	0.0	1.0	1	1.06	0.94				
	18	1	27.200000000000003	9.8	0.0	10.0	1	1.0	0.0	1.0	1	1.06	0.94				
	19	1	3.3000000000000003	0.6	0.0	0.0	1	1.0	0.0	1.0	1	1.06	0.94				
	20	1	2.3	1.0	0.0	0.0	1	1.0	0.0	1.0	1	1.06	0.94				
	21	1	0.0	0.0	0.0	0.0	1	1.0	0.0	1.0	1	1.06	0.94				
	22	1	0.0	0.0	0.0	0.0	1	1.0	0.0	1.0	1	1.06	0.94				
	23	1	6.3	2.1	0.0	0.0	1	1.0	0.0	1.0	1	1.06	0.94				
	24	1	0.0	0.0	0.0	0.0	1	1.0	0.0	1.0	1	1.06	0.94				
	25	1	6.3	3.2	0.0	5.9	1	1.0	0.0	1.0	1	1.06	0.94				
	26	1	0.0	0.0	0.0	0.0	1	1.0	0.0	1.0	1	1.06	0.94				
	27	1	9.3	0.5	0.0	0.0	1	1.0	0.0	1.0	1	1.06	0.94				
	28	1	4.6	2.3	0.0	0.0	1	1.0	0.0	1.0	1	1.06	0.94				
	29	1	17.0	2.6	0.0	0.0	1	1.0	0.0	1.0	1	1.06	0.94				
	30	1	3.6000000000000005	1.8000000000000003	0.0	0.0	1	1.0	0.0	1.0	1	1.06	0.94				
	31	1	5.8	2.9	0.0	0.0	1	1.0	0.0	1.0	1	1.06	0.94				
	32	1	1.6	0.8	0.0	0.0	1	1.0	0.0	1.0	1	1.06	0.94				
	33	1	3.8	1.9	0.0	0.0	1	1.0	0.0	1.0	1	1.06	0.94				
	34	1	0.0	0.0	0.0	0.0	1	1.0	0.0	1.0	1	1.06	0.94				
	35	1	6.0	3.0	0.0	0.0	1	1.0	0.0	1.0	1	1.06	0.94				
	36	1	0.0	0.0	0.0	0.0	1	1.0	0.0	1.0	1	1.06	0.94				
	37	1	0.0	0.0	0.0	0.0	1	1.0	0.0	1.0	1	1.06	0.94				
	38	1	14.000000000000002	7.000000000000001	0.0	0.0	1	1.0	0.0	1.0	1	1.06	0.94				
	39	1	0.0	0.0	0.0	0.0	1	1.0	0.0	1.0	1	1.06	0.94				
	40	1	0.0	0.0	0.0	0.0	1	1.0	0.0	1.0	1	1.06	0.94				
	41	1	6.3	3.0	0.0	0.0	1	1.0	0.0	1.0	1	1.06	0.94				
	42	1	7.1	4.4	0.0	0.0	1	1.0	0.0	1.0	1	1.06	0.94				
	43	1	2.0	1.0	0.0	0.0	1	1.0	0.0	1.0	1	1.06	0.94				
	44	1	12.0	1.8000000000000003	0.0	0.0	1	1.0	0.0	1.0	1	1.06	0.94				
	45	1	0.0	0.0	0.0	0.0	1	1.0	0.0	1.0	1	1.06	0.94				
	46	1	0.0	0.0	0.0	0.0	1	1.0	0.0	1.0	1	1.06	0.94				
	47	1	29.7	11.6	0.0	0.0	1	1.0	0.0	1.0	1	1.06	0.94				
	48	1	0.0	0.0	0.0	0.0	1	1.0	0.0	1.0	1	1.06	0.94				
	49	1	18.0	8.5	0.0	0.0	1	1.0	0.0	1.0	1	1.06	0.94				
	50	1	21.0	10.5	0.0	0.0	1	1.0	0.0	1.0	1	1.06	0.94				
	51	1	18.0	5.3	0.0	0.0	1	1.0	0.0	1.0	1	1.06	0.94				
	52	1	4.9	2.2	0.0	0.0	1	1.0	0.0	1.0	1	1.06	0.94				
	53	1	20.0	10.0	0.0	6.3	1	1.0	0.0	1.0	1	1.06	0.94				
	54	1	4.1	1.4	0.0	0.0	1	1.0	0.0	1.0	1	1.06	0.94				
	55	1	6.800000000000001	3.4000000000000004	0.0	0.0	1	1.0	0.0	1.0	1	1.06	0.94				
	56	1	7.6	2.2	0.0	0.0	1	1.0	0.0	1.0	1	1.06	0.94				
	57	1	6.7	2.0	0.0	0.0	1	1.0	0.0	1.0	1	1.06	0.94				
];

%column_names% 	μ 		dst_id	λvmax	σ		λvmin 
mpc.bus_data = {
				55.0	0		1.03643	5.50	1.03643; % 1
				3.0		0		1.03643	0.30	1.03643; % 2
				41.0	1		1.03643	4.10	1.03643; % 3
				0.0		0		1.03643	0.0		1.03643; % 4
				13.0	0		1.03643	1.3		1.03643; % 5
				75.0	0		1.03643	7.5		1.03643; % 6
				0.0		0		1.03643	0.0		1.03643; % 7
				150.0	0		1.03643	15.0	1.03643; % 8
				121.0	2		1.03643	12.10	1.03643; % 9
				5.0		0		1.03643	0.5		1.03643; % 10
				0.0		0		1.03643	0.0		1.03643; % 11
				377.0	3		1.03643	37.7	1.03643; % 12
				18.0	4		1.03643	1.8		1.03643; % 13
				10.5	3		1.03643	1.05	1.03643; % 14
				22.0	1		1.03643	2.2		1.03643; % 15
				43.0	0		1.03643	4.3		1.03643; % 16
				42.0	0		1.03643	4.2		1.03643; % 17
				27.2	1		1.03643	2.72	1.03643; % 18
				3.3		0		1.03643	0.33	1.03643; % 19
				2.3		0		1.03643	0.23	1.03643; % 20
				0.0		0		1.03643	0.0		1.03643; % 21
				0.0		0		1.03643	0.0		1.03643; % 22
				6.3		0		1.03643	0.63	1.03643; % 23
				0.0		0		1.03643	0.0		1.03643; % 24
				6.3		3		1.03643	0.63	1.03643; % 25
				0.0		0		1.03643	0.0		1.03643; % 26
				9.3		2		1.03643	0.93	1.03643; % 27
				4.6		0		1.03643	0.46	1.03643; % 28
				17.0	1		1.03643	1.70	1.03643; % 29
				3.6		0		1.03643	0.36	1.03643; % 30
				5.8		3		1.03643	0.58	1.03643; % 31
				1.6		0		1.03643	0.16	1.03643; % 32
				3.8		0		1.03643	0.38	1.03643; % 33
				0.0		0		1.03643	0.0		1.03643; % 34
				6.0		2		1.03643	0.60	1.03643; % 35
				0.0		0		1.03643	0.0		1.03643; % 36
				0.0		0		1.03643	0.0		1.03643; % 37
				14.0	2		1.03643	1.40	1.03643; % 38
				0.0		0		1.03643	0.0		1.03643; % 39
				0.0		0		1.03643	0.0		1.03643; % 40
				6.3		1		1.03643	0.63	1.03643; % 41
				7.1		2		1.03643	0.71	1.03643; % 42
				2.0		0		1.03643	0.2		1.03643; % 43
				12.0	3		1.03643	1.20	1.03643; % 44
				0.0		0		1.03643	0.0		1.03643; % 45
				0.0		0		1.03643	0.0		1.03643; % 46
				29.7	0		1.03643	2.97	1.03643; % 47
				0.0		0		1.03643	0.0		1.03643; % 48
				18.0	3		1.03643	1.8		1.03643; % 49
				21.0	2		1.03643	2.1		1.03643; % 50
				18.0	1		1.03643	1.8		1.03643; % 51
				4.9		1		1.03643	0.49	1.03643; % 52
				20.0	1		1.03643	2.0		1.03643; % 53
				4.1		3		1.03643	0.41	1.03643; % 54
				6.8		1		1.03643	0.68	1.03643; % 55
				7.6		2		1.03643	0.76	1.03643; % 56
				6.7		4		1.03643	0.67	1.03643; % 57
};

%% generator data
%    bus    Pg    Qg    Qmax    Qmin    Vg    mBase    status    Pmax    Pmin    Pc1    Pc2    Qc1min    Qc1max    Qc2min    Qc2max    ramp_agc    ramp_10    ramp_30    ramp_q    apf
mpc.gen = [
	1	122.50000000000001	0.0	123.0	-123.0	1.0	100.0	1	245.00000000000003	0.0															
	2	0.0	16.5	50.0	-17.0	1.0	100.0	1	0.0	0.0															
	3	30.0	10.0	30.0	-10.0	1.0	100.0	1	60.0	0.0															
	6	0.0	8.5	25.0	-8.0	1.0	100.0	1	0.0	0.0															
	8	579.5	30.0	200.0	-140.0	1.0	100.0	1	1159.0	0.0															
	9	0.0	3.0	9.0	-3.0	1.0	100.0	1	0.0	0.0															
	12	259.5	2.5	155.0	-150.0	1.0	100.0	1	519.0	0.0															
];

%%-----  OPF Data  -----%%
%% cost data
%    1    startup    shutdown    n    x1    y1    ...    xn    yn
%    2    startup    shutdown    n    c(n-1)    ...    c0
mpc.gencost = [
	2	0.0	0.0	2	16.960624	0.0
	2	0.0	0.0	2	0.0	0.0
	2	0.0	0.0	2	34.075557	0.0
	2	0.0	0.0	2	0.0	0.0
	2	0.0	0.0	2	30.441037	0.0
	2	0.0	0.0	2	0.0	0.0
	2	0.0	0.0	2	37.188979	0.0
];

%column_names% λqmax λpmax λpmin λqmin 
mpc.gen_data = {
	1.03643	1.03643	1.03643	1.03643
	1.03643	1.03643	1.03643	1.03643
	1.03643	1.03643	1.03643	1.03643
	1.03643	1.03643	1.03643	1.03643
	1.03643	1.03643	1.03643	1.03643
	1.03643	1.03643	1.03643	1.03643
	1.03643	1.03643	1.03643	1.03643
};

%% branch data
%    f_bus    t_bus    r    x    b    rateA    rateB    rateC    ratio    angle    status    angmin    angmax
mpc.branch = [
	1	2	0.0083	0.028	0.129	1005.0000000000001	1005.0000000000001	1005.0000000000001	0	0	1	-29.999999999999996	29.999999999999996								
	2	3	0.0298	0.085	0.0818	326.0	326.0	326.0	0	0	1	-29.999999999999996	29.999999999999996								
	3	4	0.0112	0.0366	0.038	767.0	767.0	767.0	0	0	1	-29.999999999999996	29.999999999999996								
	4	5	0.0625	0.132	0.0258	200.99999999999997	200.99999999999997	200.99999999999997	0	0	1	-29.999999999999996	29.999999999999996								
	4	6	0.043	0.148	0.0348	191.0	191.0	191.0	0	0	1	-29.999999999999996	29.999999999999996								
	6	7	0.02	0.102	0.0276	283.0	283.0	283.0	0	0	1	-29.999999999999996	29.999999999999996								
	6	8	0.0339	0.173	0.047	167.0	167.0	167.0	0	0	1	-29.999999999999996	29.999999999999996								
	8	9	0.0099	0.0505	0.0548	570.0	570.0	570.0	0	0	1	-29.999999999999996	29.999999999999996								
	9	10	0.0369	0.1679	0.044	171.0	171.0	171.0	0	0	1	-29.999999999999996	29.999999999999996								
	9	11	0.0258	0.0848	0.0218	331.0	331.0	331.0	0	0	1	-29.999999999999996	29.999999999999996								
	9	12	0.0648	0.295	0.0772	98.0	98.0	98.0	0	0	1	-29.999999999999996	29.999999999999996								
	9	13	0.0481	0.158	0.0406	178.0	178.0	178.0	0	0	1	-29.999999999999996	29.999999999999996								
	13	14	0.0132	0.0434	0.011	647.0	647.0	647.0	0	0	1	-29.999999999999996	29.999999999999996								
	13	15	0.0269	0.0869	0.023	323.0	323.0	323.0	0	0	1	-29.999999999999996	29.999999999999996								
	1	15	0.0178	0.091	0.0988	317.0	317.0	317.0	0	0	1	-29.999999999999996	29.999999999999996								
	1	16	0.0454	0.206	0.0546	140.0	140.0	140.0	0	0	1	-29.999999999999996	29.999999999999996								
	1	17	0.0238	0.108	0.0286	266.0	266.0	266.0	0	0	1	-29.999999999999996	29.999999999999996								
	3	15	0.0162	0.053	0.0544	530.0	530.0	530.0	0	0	1	-29.999999999999996	29.999999999999996								
	4	18	0.0	0.555	0.0	53.0	53.0	53.0	0.97	0.0	1	-29.999999999999996	29.999999999999996								
	4	18	0.0	0.43	0.0	69.0	69.0	69.0	0.978	0.0	1	-29.999999999999996	29.999999999999996								
	5	6	0.0302	0.0641	0.0124	413.99999999999994	413.99999999999994	413.99999999999994	0	0	1	-29.999999999999996	29.999999999999996								
	7	8	0.0139	0.0712	0.0194	405.0	405.0	405.0	0	0	1	-29.999999999999996	29.999999999999996								
	10	12	0.0277	0.1262	0.0328	227.99999999999997	227.99999999999997	227.99999999999997	0	0	1	-29.999999999999996	29.999999999999996								
	11	13	0.0223	0.0732	0.0188	384.0	384.0	384.0	0	0	1	-29.999999999999996	29.999999999999996								
	12	13	0.0178	0.058	0.0604	484.0	484.0	484.0	0	0	1	-29.999999999999996	29.999999999999996								
	12	16	0.018	0.0813	0.0216	353.0	353.0	353.0	0	0	1	-29.999999999999996	29.999999999999996								
	12	17	0.0397	0.179	0.0476	160.0	160.0	160.0	0	0	1	-29.999999999999996	29.999999999999996								
	14	15	0.0171	0.0547	0.0148	512.0	512.0	512.0	0	0	1	-29.999999999999996	29.999999999999996								
	18	19	0.461	0.685	0.0	36.0	36.0	36.0	0	0	1	-29.999999999999996	29.999999999999996								
	19	20	0.283	0.434	0.0	56.99999999999999	56.99999999999999	56.99999999999999	0	0	1	-29.999999999999996	29.999999999999996								
	21	20	0.0	0.7767	0.0	38.0	38.0	38.0	1.043	0.0	1	-29.999999999999996	29.999999999999996								
	21	22	0.0736	0.117	0.0	213.0	213.0	213.0	0	0	1	-29.999999999999996	29.999999999999996								
	22	23	0.0099	0.0152	0.0	1617.0000000000002	1617.0000000000002	1617.0000000000002	0	0	1	-29.999999999999996	29.999999999999996								
	23	24	0.166	0.256	0.0084	97.0	97.0	97.0	0	0	1	-29.999999999999996	29.999999999999996								
	24	25	0.0	1.182	0.0	25.0	25.0	25.0	1.0	0.0	1	-29.999999999999996	29.999999999999996								
	24	25	0.0	1.23	0.0	24.0	24.0	24.0	1.0	0.0	1	-29.999999999999996	29.999999999999996								
	24	26	0.0	0.0473	0.0	621.0	621.0	621.0	1.043	0.0	1	-29.999999999999996	29.999999999999996								
	26	27	0.165	0.254	0.0	97.0	97.0	97.0	0	0	1	-29.999999999999996	29.999999999999996								
	27	28	0.0618	0.0954	0.0	259.0	259.0	259.0	0	0	1	-29.999999999999996	29.999999999999996								
	28	29	0.0418	0.0587	0.0	408.0	408.0	408.0	0	0	1	-29.999999999999996	29.999999999999996								
	7	29	0.0	0.0648	0.0	453.0	453.0	453.0	0.967	0.0	1	-29.999999999999996	29.999999999999996								
	25	30	0.135	0.202	0.0	121.0	121.0	121.0	0	0	1	-29.999999999999996	29.999999999999996								
	30	31	0.326	0.497	0.0	50.0	50.0	50.0	0	0	1	-29.999999999999996	29.999999999999996								
	31	32	0.507	0.755	0.0	33.0	33.0	33.0	0	0	1	-29.999999999999996	29.999999999999996								
	32	33	0.0392	0.036	0.0	552.0	552.0	552.0	0	0	1	-29.999999999999996	29.999999999999996								
	34	32	0.0	0.953	0.0	31.0	31.0	31.0	0.975	0.0	1	-29.999999999999996	29.999999999999996								
	34	35	0.052	0.078	0.0032	313.0	313.0	313.0	0	0	1	-29.999999999999996	29.999999999999996								
	35	36	0.043	0.0537	0.0016	426.99999999999994	426.99999999999994	426.99999999999994	0	0	1	-29.999999999999996	29.999999999999996								
	36	37	0.029	0.0366	0.0	629.0	629.0	629.0	0	0	1	-29.999999999999996	29.999999999999996								
	37	38	0.0651	0.1009	0.002	245.00000000000003	245.00000000000003	245.00000000000003	0	0	1	-29.999999999999996	29.999999999999996								
	37	39	0.0239	0.0379	0.0	655.0	655.0	655.0	0	0	1	-29.999999999999996	29.999999999999996								
	36	40	0.03	0.0466	0.0	530.0	530.0	530.0	0	0	1	-29.999999999999996	29.999999999999996								
	22	38	0.0192	0.0295	0.0	834.0	834.0	834.0	0	0	1	-29.999999999999996	29.999999999999996								
	11	41	0.0	0.749	0.0	40.0	40.0	40.0	0.955	0.0	1	-29.999999999999996	29.999999999999996								
	41	42	0.207	0.352	0.0	72.0	72.0	72.0	0	0	1	-29.999999999999996	29.999999999999996								
	41	43	0.0	0.412	0.0	72.0	72.0	72.0	0	0	1	-29.999999999999996	29.999999999999996								
	38	44	0.0289	0.0585	0.002	450.0	450.0	450.0	0	0	1	-29.999999999999996	29.999999999999996								
	15	45	0.0	0.1042	0.0	282.0	282.0	282.0	0.955	0.0	1	-29.999999999999996	29.999999999999996								
	14	46	0.0	0.0735	0.0	400.0	400.0	400.0	0.9	0.0	1	-29.999999999999996	29.999999999999996								
	46	47	0.023	0.068	0.0032	409.0	409.0	409.0	0	0	1	-29.999999999999996	29.999999999999996								
	47	48	0.0182	0.0233	0.0	993.0	993.0	993.0	0	0	1	-29.999999999999996	29.999999999999996								
	48	49	0.0834	0.129	0.0048	191.0	191.0	191.0	0	0	1	-29.999999999999996	29.999999999999996								
	49	50	0.0801	0.128	0.0	195.0	195.0	195.0	0	0	1	-29.999999999999996	29.999999999999996								
	50	51	0.1386	0.22	0.0	112.99999999999999	112.99999999999999	112.99999999999999	0	0	1	-29.999999999999996	29.999999999999996								
	10	51	0.0	0.0712	0.0	412.0	412.0	412.0	0.93	0.0	1	-29.999999999999996	29.999999999999996								
	13	49	0.0	0.191	0.0	154.0	154.0	154.0	0.895	0.0	1	-29.999999999999996	29.999999999999996								
	29	52	0.1442	0.187	0.0	125.0	125.0	125.0	0	0	1	-29.999999999999996	29.999999999999996								
	52	53	0.0762	0.0984	0.0	236.0	236.0	236.0	0	0	1	-29.999999999999996	29.999999999999996								
	53	54	0.1878	0.232	0.0	99.0	99.0	99.0	0	0	1	-29.999999999999996	29.999999999999996								
	54	55	0.1732	0.2265	0.0	103.0	103.0	103.0	0	0	1	-29.999999999999996	29.999999999999996								
	11	43	0.0	0.153	0.0	192.0	192.0	192.0	0.958	0.0	1	-29.999999999999996	29.999999999999996								
	44	45	0.0624	0.1242	0.004	212.0	212.0	212.0	0	0	1	-29.999999999999996	29.999999999999996								
	40	56	0.0	1.195	0.0	25.0	25.0	25.0	0.958	0.0	1	-29.999999999999996	29.999999999999996								
	56	41	0.553	0.549	0.0	38.0	38.0	38.0	0	0	1	-29.999999999999996	29.999999999999996								
	56	42	0.2125	0.354	0.0	72.0	72.0	72.0	0	0	1	-29.999999999999996	29.999999999999996								
	39	57	0.0	1.355	0.0	22.0	22.0	22.0	0.98	0.0	1	-29.999999999999996	29.999999999999996								
	57	56	0.174	0.26	0.0	94.0	94.0	94.0	0	0	1	-29.999999999999996	29.999999999999996								
	38	49	0.115	0.177	0.003	139.0	139.0	139.0	0	0	1	-29.999999999999996	29.999999999999996								
	38	48	0.0312	0.0482	0.0	511.00000000000006	511.00000000000006	511.00000000000006	0	0	1	-29.999999999999996	29.999999999999996								
	9	55	0.0	0.1205	0.0	244.0	244.0	244.0	0.94	0.0	1	-29.999999999999996	29.999999999999996								
];

%column_names% λcmax 
mpc.branch_data = {
	1.03643
	1.03643
	1.03643
	1.03643
	1.03643
	1.03643
	1.03643
	1.03643
	1.03643
	1.03643
	1.03643
	1.03643
	1.03643
	1.03643
	1.03643
	1.03643
	1.03643
	1.03643
	1.03643
	1.03643
	1.03643
	1.03643
	1.03643
	1.03643
	1.03643
	1.03643
	1.03643
	1.03643
	1.03643
	1.03643
	1.03643
	1.03643
	1.03643
	1.03643
	1.03643
	1.03643
	1.03643
	1.03643
	1.03643
	1.03643
	1.03643
	1.03643
	1.03643
	1.03643
	1.03643
	1.03643
	1.03643
	1.03643
	1.03643
	1.03643
	1.03643
	1.03643
	1.03643
	1.03643
	1.03643
	1.03643
	1.03643
	1.03643
	1.03643
	1.03643
	1.03643
	1.03643
	1.03643
	1.03643
	1.03643
	1.03643
	1.03643
	1.03643
	1.03643
	1.03643
	1.03643
	1.03643
	1.03643
	1.03643
	1.03643
	1.03643
	1.03643
	1.03643
	1.03643
	1.03643
};

%% stochastic data
%column_names%  dst         pa      pb
mpc.sdata = [
                'Beta'   	2.0     2.0;
				'Beta'		2.0		5.0;
                'Normal'    0.0     0.0;
				'Normal'	0.0		0.0;
]